simulator lang=spectre
global 0
parameters ibias={{ibias}} nA={{nA}} nB0={{nB0}} nB10={{nB10}} nB11={{nB11}} nB1={{nB1}} nB2={{nB2}} nB3={{nB3}} nB4={{nB4}} nB5={{nB5}} nB6={{nB6}} nB7={{nB7}} nB8={{nB8}} nB9={{nB9}} nC1={{nC1}} tempc={{tempc}} vcm={{vcm}} vdd={{vdd}} 
include "/homes/natelgrw/Documents/TURBO_circuit_optimizer/lstp/7nfet.pm"
include "/homes/natelgrw/Documents/TURBO_circuit_optimizer/lstp/7pfet.pm"

subckt  symmetrical_op_amp26 ibias in1 in2 out gnd! vdd!

MM1 ibias ibias gnd! gnd! nfet l=nA nfin=nB0
MM2 innerComplementarySecondStage innerComplementarySecondStage StageBiasComplementarySecondStageYinner StageBiasComplementarySecondStageYinner nfet l=nA nfin=nB1
MM3 inOutputTransconductanceComplementarySecondStage inOutputTransconductanceComplementarySecondStage vdd! vdd! pfet l=nA nfin=nB2
MM4 inSourceTransconductanceComplementarySecondStage inSourceTransconductanceComplementarySecondStage vdd! vdd! pfet l=nA nfin=nB2
MM5 outFirstStage outFirstStage vdd! vdd! pfet l=nA nfin=nB3
MM6 inOutputTransconductanceComplementarySecondStage ibias gnd! gnd! nfet l=nA nfin=nB4
MM7 inSourceTransconductanceComplementarySecondStage in2 FirstStageYsourceTransconductance FirstStageYsourceTransconductance nfet l=nA nfin=nB5
MM8 out innerComplementarySecondStage SecondStageYinnerStageBias SecondStageYinnerStageBias nfet l=nA nfin=nB6
MM9 outFirstStage in1 FirstStageYsourceTransconductance FirstStageYsourceTransconductance nfet l=nA nfin=nB7
MM10 FirstStageYsourceTransconductance ibias gnd! gnd! nfet l=nA nfin=nB8
MM11 SecondStageYinnerStageBias innerComplementarySecondStage gnd! gnd! nfet l=nA nfin=nB8
MM12 StageBiasComplementarySecondStageYinner innerComplementarySecondStage gnd! gnd! nfet l=nA nfin=nB9
MM13 innerComplementarySecondStage inOutputTransconductanceComplementarySecondStage TransconductanceComplementarySecondStageYinner TransconductanceComplementarySecondStageYinner pfet l=nA nfin=nB10
MM14 out inOutputTransconductanceComplementarySecondStage SecondStageYinnerTransconductance SecondStageYinnerTransconductance pfet l=nA nfin=nB10
MM15 SecondStageYinnerTransconductance outFirstStage vdd! vdd! pfet l=nA nfin=nB11
MM16 TransconductanceComplementarySecondStageYinner inSourceTransconductanceComplementarySecondStage vdd! vdd! pfet l=nA nfin=nB11
C1 out gnd! capacitor c=nC1
ends symmetrical_op_amp26


VS (gnd! 0) vsource dc=0 type=dc
V0 (vdd! gnd!) vsource dc=vdd type=dc
V2 (in gnd!) vsource type=dc mag=1
E1 (Vinp cm in gnd!) vcvs gain=.5
E0 (Vinn cm in gnd!) vcvs gain=-0.5
V1 (cm gnd!) vsource dc=vcm type=dc
I0 (ibias gnd!) isource dc=ibias type=dc

xi0 ibias in1 in2 out gnd! vdd! symmetrical_op_amp26

simulatorOptions options psfversion="1.4.0" reltol=1e-3 vabstol=1e-6 \
    iabstol=1e-12 temp=tempc tnom=27 scalem=1.0 scale=1.0 gmin=1e-12 rforce=1 \
    maxnotes=5 maxwarns=5 digits=5 cols=80 pivrel=1e-3 \
    sensfile="../psf/sens.output" checklimitdest=psf
    ac ac start=1 stop=100G dec=10 annotate=status
dcOp dc write="spectre.dc" maxiters=150 maxsteps=10000 annotate=status
dcOpInfo info what=oppoint where=rawfile
modelParameter info what=models where=rawfile
element info what=inst where=rawfile
outputParameter info what=output where=rawfile
designParamVals info what=parameters where=rawfile
primitives info what=primitives where=rawfile
subckts info what=subckts where=rawfile
saveOptions options save=allpub
