simulator lang=spectre 
global 0
parameters tempc={{tempc}} nA1={{nA1}} nB1={{nB1}} nA2={{nA2}} nB2={{nB2}} nA3={{nA3}} nB3={{nB3}} nA4={{nA4}} nB4={{nB4}} vdd={{vdd}} vcm={{vcm}} vbiasp0={{vbiasp0}} vbiasn1={{vbiasn1}} vbiasn2={{vbiasn2}} 
include "/homes/dkochar/migration_project/open-source/scs_files/PTM-MG/modelfiles/lstp/14nfet.pm" 

include "/homes/dkochar/migration_project/open-source/scs_files/PTM-MG/modelfiles/lstp/14pfet.pm"
//


//.GLOBAL gnd!
////+        vdd!

//.PIN gnd!
////+    vdd!


// fully_differential_cascode_pfet Vbiasn1 Vbiasn2 Vbiasp0 Vinn Vinp Voutn Voutp
//.PININFO Vbiasp0:I Vinn:I Vinp:I Vbiasn1:O Vbiasn2:O Voutp1:O Voutp2:O
MM1 Voutp Vbiasn2 net17 gnd! nfet l=nA2 nfin=nB2
MM0 Voutn Vbiasn2 net18 gnd! nfet l=nA2 nfin=nB2
MM9 net18 Vbiasn1 gnd! gnd! nfet l=nA3 nfin=nB3
MM8 net17 Vbiasn1 gnd! gnd! nfet l=nA3 nfin=nB3
MM5 net13 Vbiasp0 vdd! vdd! pfet l=nA4 nfin=nB4
MM7 Voutn Vinn net13 net20 pfet l=nA1 nfin=nB1
MM6 Voutp Vinp net13 net20 pfet l=nA1 nfin=nB1

VS (gnd! 0) vsource dc=0 type=dc
V0 (vdd! gnd!) vsource dc=vdd type=dc
V2 (in gnd!) vsource type=dc mag=1
E1 (Vinp cm in gnd!) vcvs gain=.5
E0 (Vinn cm in gnd!) vcvs gain=-0.5
V1 (cm gnd!) vsource dc=vcm type=dc
VP (Vbiasp0 gnd!) vsource dc=vbiasp0 type=dc
VN1 (Vbiasn1 gnd!) vsource dc=vbiasn1 type=dc
VN2 (Vbiasn2 gnd!) vsource dc=vbiasn2 type=dc
simulatorOptions options psfversion="1.4.0" reltol=1e-3 vabstol=1e-6 \
    iabstol=1e-12 temp=tempc tnom=27 scalem=1.0 scale=1.0 gmin=1e-12 rforce=1 \
    maxnotes=5 maxwarns=5 digits=5 cols=80 pivrel=1e-3 \
    sensfile="../psf/sens.output" checklimitdest=psf 
ac ac start=1 stop=100G dec=10 annotate=status 
dcOp dc write="spectre.dc" maxiters=150 maxsteps=10000 annotate=status
dcOpInfo info what=oppoint where=rawfile
modelParameter info what=models where=rawfile
element info what=inst where=rawfile
outputParameter info what=output where=rawfile
designParamVals info what=parameters where=rawfile
primitives info what=primitives where=rawfile
subckts info what=subckts where=rawfile
save V0:p  MM0:gm MM0:vgs MM0:vds MM0:ids MM0:region  MM1:gm MM1:vgs MM1:vds MM1:ids MM1:region  MM5:gm MM5:vgs MM5:vds MM5:ids MM5:region  MM6:gm MM6:vgs MM6:vds MM6:ids MM6:region  MM7:gm MM7:vgs MM7:vds MM7:ids MM7:region  MM8:gm MM8:vgs MM8:vds MM8:ids MM8:region  MM9:gm MM9:vgs MM9:vds MM9:ids MM9:region
saveOptions options save=allpub
